<?xml version="1.0" ?>
<!-- Generated by MOSAIC scenario-convert 23.1 -->
<routes>
	<vType id="default" length="7.5" maxSpeed="50" minGap="2.0" carFollowModel="Krauss" accel="0.80" decel="4.5" sigma="0.5" tau="1"/>
	<route id="1" edges="788278353_7369969947_10943102727 1177979594_10943102727_42429874 68668552_42429874_7372860100 5672965_7372860100_42453624" />
	<route id="2" edges="788278353_7369969947_10943102727 1177979594_10943102727_42429874 5669875_42429874_42429876" />
	<route id="3" edges="788278353_7369969947_10943102727 1177979594_10943102727_42429874 5669875_42429874_42429876" />
	<route id="4" edges="587061854_42434800_42429874 5669875_42429874_42429876" />
	<route id="5" edges="587061854_42434800_42429874 68668552_42429874_7372860100 5672965_7372860100_42453624" />
	<route id="6" edges="587061854_42434800_42429874 5669875_42429874_42429876" />
</routes>