<edges>
	<edge id="788602259_7372860100_7372860099" from="7372860100" to="7372860099" numLanes="1" shape="585413.38,4510750.99,0.00 585408.15,4510734.82,0.00 585405.76,4510727.44,0.00 585403.78,4510721.47,0.00 585396.21,4510704.43,0.00" speed="13.89" />
	<edge id="5672965_7372860100_42453624" from="7372860100" to="42453624" numLanes="3" shape="585413.38,4510750.99,0.00 585389.28,4510708.17,0.00 585385.44,4510701.47,0.00" speed="11.18" />
	<edge id="587061854_42434800_42429874" from="42434800" to="42429874" numLanes="4" shape="585461.30,4510839.48,0.00 585457.58,4510832.51,0.00 585427.71,4510777.16,0.00 585424.19,4510770.64,0.00" speed="11.18" />
	<edge id="788278353_7369969947_10943102727" from="7369969947" to="10943102727" numLanes="1" shape="585356.93,4510806.98,0.00 585363.05,4510803.70,0.00 585391.63,4510788.34,0.00" speed="11.18" />
	<edge id="1177979594_10943102727_42429874" from="10943102727" to="42429874" numLanes="2" shape="585391.63,4510788.34,0.00 585413.32,4510776.50,0.00 585424.19,4510770.64,0.00" speed="11.18" />
	<edge id="5669875_42429874_42429876" from="42429874" to="42429876" numLanes="1" shape="585424.19,4510770.64,0.00 585433.16,4510765.64,0.00 585550.77,4510701.79,0.00 585559.84,4510696.72,0.00" speed="11.18" />
	<edge id="68668552_42429874_7372860100" from="42429874" to="7372860100" numLanes="4" shape="585424.19,4510770.64,0.00 585420.66,4510764.12,0.00 585413.38,4510750.99,0.00" speed="11.18" />
</edges>
