<connections>
	<connection from="587061854_42434800_42429874" to="5669875_42429874_42429876" />
	<connection from="587061854_42434800_42429874" to="68668552_42429874_7372860100" />
	<connection from="788278353_7369969947_10943102727" to="1177979594_10943102727_42429874" />
	<connection from="1177979594_10943102727_42429874" to="5669875_42429874_42429876" />
	<connection from="1177979594_10943102727_42429874" to="68668552_42429874_7372860100" />
	<connection from="68668552_42429874_7372860100" to="788602259_7372860100_7372860099" />
	<connection from="68668552_42429874_7372860100" to="5672965_7372860100_42453624" />
</connections>
