<?xml version="1.0" encoding="UTF-8"?>

<!-- generated on 2024-06-03 02:36:10 by Eclipse SUMO netedit Version 1.19.0
-->

<routes xmlns:xsi="http://www.w3.org/2001/XMLSchema-instance" xsi:noNamespaceSchemaLocation="http://sumo.dlr.de/xsd/routes_file.xsd">
    <!-- VTypes -->
    <vType id="default" length="7.50" minGap="2.00" maxSpeed="50.00" carFollowModel="Krauss" accel="0.80" decel="4.5" sigma="0.5" tau="1"/>
</routes>
